src/test/resources/netPositionsData/20190618_0030_2D2_D71.uct
##C 2007.05.01

##N
##ZD7
D7C_LO11 SHADOW       1 2 400.00   00.00   10.00 1000.00   10.00 5258.87   20.00
D7A_PR21 SHADOW       1 2 400.00   00.00   10.00  500.00   10.00 5966.04   20.00
D7A_SE11 SHADOW       1 2 400.00   00.00   10.00  200.00   10.00  500.00   20.00
D7O_CH11 SHADOW       1 2 400.00   00.00   10.00  100.00   10.00  500.00   20.00
##ZXX
X7C_LO11 CORE         1 0 400.00 1200.00   10.00   00.00   10.00   20.00   20.00
X7A_PR21 OUT          1 0 400.00  550.00   10.00   00.00   10.00   20.00   20.00
X7A_SE11 VIRTHUB      1 0 400.00  900.00   10.00   00.00   10.00   20.00   20.00
X7O_CH11 VIRTHUB      1 0 400.00   00.00   10.00   00.00   10.00   20.00   20.00
##L
D7C_LO11 X7C_LO11 1 0  20.00  20.00  20.00   5000
D7A_PR21 X7A_PR21 1 0  20.00  20.00  20.00   5000
D7A_SE11 X7A_SE11 1 0  20.00  20.00  20.00   5000
D7O_CH11 X7O_CH11 1 0  20.00  20.00  20.00   5000
##T
##R
